[Format]      =  4.0
[Frequency]   =  0
[Precision]   =  1e-008
[MinAngle]    =  30
[Depth]       =  1
[LengthUnits] =  millimeters
[ProblemType] =  axisymmetric
[Coordinates] =  cartesian
[ACSolver]    =  0
[PrevSoln]    =  ""
[Comment]     =  "Add comments here."
[PointProps]   = 0
[BdryProps]   = 0
[BlockProps]  = 3
  <BeginBlock>
    <BlockName> = "Air"
    <Mu_x> = 1
    <Mu_y> = 1
    <H_c> = 0
    <H_cAngle> = 0
    <J_re> = 0
    <J_im> = 0
    <Sigma> = 0
    <d_lam> = 0
    <Phi_h> = 0
    <Phi_hx> = 0
    <Phi_hy> = 0
    <LamType> = 0
    <LamFill> = 1
    <NStrands> = 0
    <WireD> = 0
    <BHPoints> = 0
  <EndBlock>
  <BeginBlock>
    <BlockName> = "0.25mm"
    <Mu_x> = 1
    <Mu_y> = 1
    <H_c> = 0
    <H_cAngle> = 0
    <J_re> = 0
    <J_im> = 0
    <Sigma> = 58
    <d_lam> = 0
    <Phi_h> = 0
    <Phi_hx> = 0
    <Phi_hy> = 0
    <LamType> = 3
    <LamFill> = 1
    <NStrands> = 1
    <WireD> = 0.25
    <BHPoints> = 0
  <EndBlock>
  <BeginBlock>
    <BlockName> = "Soft magnetic ferrite (Fe-Ni-Zn-V)"
    <Mu_x> = 1
    <Mu_y> = 1
    <H_c> = 0
    <H_cAngle> = 0
    <J_re> = 0
    <J_im> = 0
    <Sigma> = 0
    <d_lam> = 0
    <Phi_h> = 0
    <Phi_hx> = 0
    <Phi_hy> = 0
    <LamType> = 0
    <LamFill> = 1
    <NStrands> = 0
    <WireD> = 0
    <BHPoints> = 27
      0	0
      0.068850756910128444	44.63519753086419
      0.079231351768504585	47.996938271604932
      0.096629805222867599	54.360481481481472
      0.10428518223687107	57.254135802469136
      0.11791981395323581	63.513925925925903
      0.12337443073651684	66.205407407407364
      0.15091206297703	83.18401234567898
      0.19174942986281673	128.63864197530862
      0.20263507284968685	150.32185185185182
      0.2390242052470492	280.2956790123456
      0.24393625127711305	307.76197530864192
      0.24555614462251754	317.50148148148139
      0.26724361274612662	486.03790123456781
      0.29056515192641547	775.60827160493818
      0.29618977849347761	869.47777777777765
      0.31289613290425267	1359.0728395061724
      0.31335557743458525	1373.2691358024688
      0.33594174880643024	2431.4518518518512
      0.36483908041448099	5699.1765432098764
      0.36848205798752964	6389.1543209876527
      0.37676605298145499	8458.0074074074037
      0.47711675995875713	61532.617283950603
      0.49488110240278821	73419.641975308608
      0.6669901800055722	197003.70370370365
      0.82853938560684104	321027.90123456786
      0.83272023087673985	324350
  <EndBlock>
[CircuitProps]  = 1
  <BeginCircuit>
    <CircuitName> = "L1"
    <TotalAmps_re> = 0.69999999999999996
    <TotalAmps_im> = 0
    <CircuitType> = 1
  <EndCircuit>
[NumPoints] = 14
0	1	0	0
5	1	0	0
5	3	0	0
0	10	0	0
5	10	0	0
5	8.5	0	0
2.75	8.5	0	0
2.75	3	0	0
4	8.5	0	0
4	3	0	0
0	105	0	0
0	-95	0	0
0	11.700000000000001	0	0
20	11.700000000000001	0	0
[NumSegments] = 15
3	4	-1	0	0	0
5	4	-1	0	0	0
8	5	-1	0	0	0
6	8	-1	0	0	0
6	7	-1	0	0	0
7	9	-1	0	0	0
2	1	-1	0	0	0
2	9	-1	0	0	0
8	9	-1	0	0	0
1	0	-1	0	0	0
0	3	-1	0	0	0
10	12	-1	0	0	0
11	0	-1	0	0	0
12	3	-1	0	0	0
12	13	-1	0	0	0
[NumArcSegments] = 1
11	10	180	1	0	0	0
[NumHoles] = 0
[NumBlockLabels] = 3
3.5	5.5	2	-1	1	0	0	100	0
1	7.5	3	-1	0	0	0	1	0
8.5	5.5	1	-1	0	0	0	1	0
