Version 4
SHEET 1 880 680
WIRE 0 112 -144 112
WIRE 144 112 64 112
WIRE 208 112 144 112
WIRE 400 112 272 112
WIRE 544 112 400 112
WIRE 768 112 544 112
WIRE -144 144 -144 112
WIRE 544 160 544 112
WIRE 144 176 144 112
WIRE 400 176 400 112
WIRE 768 176 768 112
WIRE -144 304 -144 224
WIRE 144 304 144 256
WIRE 144 304 -144 304
WIRE 400 304 400 240
WIRE 400 304 144 304
WIRE 544 304 544 240
WIRE 544 304 400 304
WIRE 768 304 768 256
WIRE 768 304 544 304
WIRE -144 352 -144 304
FLAG -144 352 0
FLAG 144 112 v_ac
SYMBOL voltage -144 128 R0
WINDOW 123 0 0 Left 0
WINDOW 39 0 0 Left 0
SYMATTR InstName V1
SYMATTR Value PULSE(0 3.3 100u 1n 1n 50u 100u 50)
SYMBOL cap 64 96 R90
WINDOW 0 0 32 VBottom 2
WINDOW 3 32 32 VTop 2
SYMATTR InstName C1
SYMATTR Value 100n
SYMBOL res 128 160 R0
SYMATTR InstName R1
SYMATTR Value 270
SYMBOL cap 384 176 R0
SYMATTR InstName C2
SYMATTR Value 1µ
SYMBOL res 528 144 R0
SYMATTR InstName R2
SYMATTR Value 100k
SYMBOL diode 208 128 R270
WINDOW 0 32 32 VTop 2
WINDOW 3 0 32 VBottom 2
SYMATTR InstName D1
SYMATTR Value BAS70
SYMATTR Prefix X
SYMBOL current 768 176 R0
SYMATTR InstName I1
SYMATTR Value 5µ
TEXT -176 376 Left 2 !.tran 0 20m 0
TEXT -176 400 Left 2 !.LIB BAS70.prm
